tests/data/smartds/Transformers.dss
New Transformer.tr(r:p12udt77-p12udt77lv) phases=1 windings=3 %loadloss=0.798816 %Noloadloss=0.472 normhkva=27.5 wdg=1 conn=wye bus=p12udt77.2 Kv=7.2 kva=25.0 EmergHKVA=37.5 %r=0.266272 wdg=2 conn=wye bus=p12udt77lv.1.0 Kv=0.12 kva=25.0 EmergHKVA=37.5 %r=0.532544 wdg=3 conn=wye bus=p12udt77lv.0.2 Kv=0.12 kva=25.0 EmergHKVA=37.5 %r=0.532544 XHL=2.4 XLT=2.4 XHT=1.6

New Transformer.tr(r:p12udt84-p12udt84lv) phases=1 windings=3 %loadloss=0.798816 %Noloadloss=0.472 normhkva=27.5 wdg=1 conn=wye bus=p12udt84.2 Kv=7.2 kva=25.0 EmergHKVA=37.5 %r=0.266272 wdg=2 conn=wye bus=p12udt84lv.1.0 Kv=0.12 kva=25.0 EmergHKVA=37.5 %r=0.532544 wdg=3 conn=wye bus=p12udt84lv.0.2 Kv=0.12 kva=25.0 EmergHKVA=37.5 %r=0.532544 XHL=2.4 XLT=2.4 XHT=1.6

New Transformer.tr(r:p12udt96-p12udt96lv) phases=1 windings=3 %loadloss=0.798816 %Noloadloss=0.472 normhkva=27.5 wdg=1 conn=wye bus=p12udt96.2 Kv=7.2 kva=25.0 EmergHKVA=37.5 %r=0.266272 wdg=2 conn=wye bus=p12udt96lv.1.0 Kv=0.12 kva=25.0 EmergHKVA=37.5 %r=0.532544 wdg=3 conn=wye bus=p12udt96lv.0.2 Kv=0.12 kva=25.0 EmergHKVA=37.5 %r=0.532544 XHL=2.4 XLT=2.4 XHT=1.6

New Transformer.tr(r:p12udt99-p12udt99lv) phases=1 windings=3 %loadloss=0.798816 %Noloadloss=0.472 normhkva=27.5 wdg=1 conn=wye bus=p12udt99.2 Kv=7.2 kva=25.0 EmergHKVA=37.5 %r=0.266272 wdg=2 conn=wye bus=p12udt99lv.1.0 Kv=0.12 kva=25.0 EmergHKVA=37.5 %r=0.532544 wdg=3 conn=wye bus=p12udt99lv.0.2 Kv=0.12 kva=25.0 EmergHKVA=37.5 %r=0.532544 XHL=2.4 XLT=2.4 XHT=1.6

New Transformer.tr(r:p12udt100-p12udt100lv) phases=1 windings=3 %loadloss=0.798816 %Noloadloss=0.472 normhkva=27.5 wdg=1 conn=wye bus=p12udt100.2 Kv=7.2 kva=25.0 EmergHKVA=37.5 %r=0.266272 wdg=2 conn=wye bus=p12udt100lv.1.0 Kv=0.12 kva=25.0 EmergHKVA=37.5 %r=0.532544 wdg=3 conn=wye bus=p12udt100lv.0.2 Kv=0.12 kva=25.0 EmergHKVA=37.5 %r=0.532544 XHL=2.4 XLT=2.4 XHT=1.6

New Transformer.tr(r:p12udt120-p12udt120lv) phases=1 windings=3 %loadloss=0.798816 %Noloadloss=0.472 normhkva=27.5 wdg=1 conn=wye bus=p12udt120.2 Kv=7.2 kva=25.0 EmergHKVA=37.5 %r=0.266272 wdg=2 conn=wye bus=p12udt120lv.1.0 Kv=0.12 kva=25.0 EmergHKVA=37.5 %r=0.532544 wdg=3 conn=wye bus=p12udt120lv.0.2 Kv=0.12 kva=25.0 EmergHKVA=37.5 %r=0.532544 XHL=2.4 XLT=2.4 XHT=1.6

New Transformer.tr(r:p12udt122-p12udt122lv) phases=1 windings=3 %loadloss=0.798816 %Noloadloss=0.472 normhkva=27.5 wdg=1 conn=wye bus=p12udt122.2 Kv=7.2 kva=25.0 EmergHKVA=37.5 %r=0.266272 wdg=2 conn=wye bus=p12udt122lv.1.0 Kv=0.12 kva=25.0 EmergHKVA=37.5 %r=0.532544 wdg=3 conn=wye bus=p12udt122lv.0.2 Kv=0.12 kva=25.0 EmergHKVA=37.5 %r=0.532544 XHL=2.4 XLT=2.4 XHT=1.6

New Transformer.tr(r:p12udt320-p12udt320lv) phases=1 windings=3 %loadloss=0.599112 %Noloadloss=0.37 normhkva=55.0 wdg=1 conn=wye bus=p12udt320.1 Kv=7.2 kva=50.0 EmergHKVA=75.0 %r=0.199704 wdg=2 conn=wye bus=p12udt320lv.1.0 Kv=0.12 kva=50.0 EmergHKVA=75.0 %r=0.399408 wdg=3 conn=wye bus=p12udt320lv.0.2 Kv=0.12 kva=50.0 EmergHKVA=75.0 %r=0.399408 XHL=2.4 XLT=2.4 XHT=1.6

New Transformer.tr(r:p12udt826-p12udt826lv) phases=1 windings=3 %loadloss=0.798816 %Noloadloss=0.37 normhkva=55.0 wdg=1 conn=wye bus=p12udt826.3 Kv=7.2 kva=50.0 EmergHKVA=75.0 %r=0.266272 wdg=2 conn=wye bus=p12udt826lv.1.0 Kv=0.12 kva=50.0 EmergHKVA=75.0 %r=0.532544 wdg=3 conn=wye bus=p12udt826lv.0.2 Kv=0.12 kva=50.0 EmergHKVA=75.0 %r=0.532544 XHL=2.4 XLT=2.4 XHT=1.6

New Transformer.tr(r:p12udt1241-p12udt1241lv) phases=3 windings=2 %loadloss=1.74408 %Noloadloss=0.6 normhkva=82.5 wdg=1 conn=wye Kv=12.47 kva=75.0 EmergHKVA=112.5 %R=0.87204 bus=p12udt1241 wdg=2 conn=wye Kv=0.48 kva=75.0 EmergHKVA=112.5 %R=0.87204 bus=p12udt1241lv XHL=3.2400000000000007

New Transformer.tr(r:p12udt1242-p12udt1242lv) phases=1 windings=3 %loadloss=0.599112 %Noloadloss=0.37 normhkva=55.0 wdg=1 conn=wye bus=p12udt1242.3 Kv=7.2 kva=50.0 EmergHKVA=75.0 %r=0.199704 wdg=2 conn=wye bus=p12udt1242lv.1.0 Kv=0.12 kva=50.0 EmergHKVA=75.0 %r=0.399408 wdg=3 conn=wye bus=p12udt1242lv.0.2 Kv=0.12 kva=50.0 EmergHKVA=75.0 %r=0.399408 XHL=2.4 XLT=2.4 XHT=1.6

New Transformer.tr(r:p12udt1243-p12udt1243lv) phases=1 windings=3 %loadloss=0.798816 %Noloadloss=0.472 normhkva=27.5 wdg=1 conn=wye bus=p12udt1243.1 Kv=7.2 kva=25.0 EmergHKVA=37.5 %r=0.266272 wdg=2 conn=wye bus=p12udt1243lv.1.0 Kv=0.12 kva=25.0 EmergHKVA=37.5 %r=0.532544 wdg=3 conn=wye bus=p12udt1243lv.0.2 Kv=0.12 kva=25.0 EmergHKVA=37.5 %r=0.532544 XHL=2.4 XLT=2.4 XHT=1.6

New Transformer.tr(r:p12udt1244-p12udt1244lv) phases=1 windings=3 %loadloss=1.248151 %Noloadloss=0.68 normhkva=11.0 wdg=1 conn=wye bus=p12udt1244.1 Kv=7.2 kva=10.0 EmergHKVA=15.0 %r=0.41605 wdg=2 conn=wye bus=p12udt1244lv.1.0 Kv=0.12 kva=10.0 EmergHKVA=15.0 %r=0.832101 wdg=3 conn=wye bus=p12udt1244lv.0.2 Kv=0.12 kva=10.0 EmergHKVA=15.0 %r=0.832101 XHL=1.08 XLT=1.08 XHT=0.72

New Transformer.tr(r:p12udt1245-p12udt1245lv) phases=1 windings=3 %loadloss=0.798816 %Noloadloss=0.472 normhkva=27.5 wdg=1 conn=wye bus=p12udt1245.2 Kv=7.2 kva=25.0 EmergHKVA=37.5 %r=0.266272 wdg=2 conn=wye bus=p12udt1245lv.1.0 Kv=0.12 kva=25.0 EmergHKVA=37.5 %r=0.532544 wdg=3 conn=wye bus=p12udt1245lv.0.2 Kv=0.12 kva=25.0 EmergHKVA=37.5 %r=0.532544 XHL=2.4 XLT=2.4 XHT=1.6

New Transformer.tr(r:p12udt1246-p12udt1246lv) phases=1 windings=3 %loadloss=0.599112 %Noloadloss=0.37 normhkva=55.0 wdg=1 conn=wye bus=p12udt1246.2 Kv=7.2 kva=50.0 EmergHKVA=75.0 %r=0.199704 wdg=2 conn=wye bus=p12udt1246lv.1.0 Kv=0.12 kva=50.0 EmergHKVA=75.0 %r=0.399408 wdg=3 conn=wye bus=p12udt1246lv.0.2 Kv=0.12 kva=50.0 EmergHKVA=75.0 %r=0.399408 XHL=2.4 XLT=2.4 XHT=1.6

New Transformer.tr(r:p12udt1247-p12udt1247lv) phases=1 windings=3 %loadloss=0.599112 %Noloadloss=0.37 normhkva=55.0 wdg=1 conn=wye bus=p12udt1247.3 Kv=7.2 kva=50.0 EmergHKVA=75.0 %r=0.199704 wdg=2 conn=wye bus=p12udt1247lv.1.0 Kv=0.12 kva=50.0 EmergHKVA=75.0 %r=0.399408 wdg=3 conn=wye bus=p12udt1247lv.0.2 Kv=0.12 kva=50.0 EmergHKVA=75.0 %r=0.399408 XHL=2.4 XLT=2.4 XHT=1.6

New Transformer.tr(r:p12udt1248-p12udt1248lv) phases=3 windings=2 %loadloss=1.74408 %Noloadloss=0.6 normhkva=82.5 wdg=1 conn=wye Kv=12.47 kva=75.0 EmergHKVA=112.5 %R=0.87204 bus=p12udt1248 wdg=2 conn=wye Kv=0.48 kva=75.0 EmergHKVA=112.5 %R=0.87204 bus=p12udt1248lv XHL=3.2400000000000007

New Transformer.tr(r:p12udt1249-p12udt1249lv) phases=1 windings=3 %loadloss=1.248151 %Noloadloss=0.68 normhkva=11.0 wdg=1 conn=wye bus=p12udt1249.1 Kv=7.2 kva=10.0 EmergHKVA=15.0 %r=0.41605 wdg=2 conn=wye bus=p12udt1249lv.1.0 Kv=0.12 kva=10.0 EmergHKVA=15.0 %r=0.832101 wdg=3 conn=wye bus=p12udt1249lv.0.2 Kv=0.12 kva=10.0 EmergHKVA=15.0 %r=0.832101 XHL=1.08 XLT=1.08 XHT=0.72

New Transformer.tr(r:p12udt1250-p12udt1250lv) phases=1 windings=3 %loadloss=1.248151 %Noloadloss=0.68 normhkva=11.0 wdg=1 conn=wye bus=p12udt1250.3 Kv=7.2 kva=10.0 EmergHKVA=15.0 %r=0.41605 wdg=2 conn=wye bus=p12udt1250lv.1.0 Kv=0.12 kva=10.0 EmergHKVA=15.0 %r=0.832101 wdg=3 conn=wye bus=p12udt1250lv.0.2 Kv=0.12 kva=10.0 EmergHKVA=15.0 %r=0.832101 XHL=1.08 XLT=1.08 XHT=0.72

New Transformer.tr(r:p12udt1251-p12udt1251lv) phases=3 windings=2 %loadloss=1.74408 %Noloadloss=0.6 normhkva=82.5 wdg=1 conn=wye Kv=12.47 kva=75.0 EmergHKVA=112.5 %R=0.87204 bus=p12udt1251 wdg=2 conn=wye Kv=0.48 kva=75.0 EmergHKVA=112.5 %R=0.87204 bus=p12udt1251lv XHL=3.2400000000000007

New Transformer.tr(r:p12udt1253-p12udt1253lv) phases=1 windings=3 %loadloss=0.798816 %Noloadloss=0.472 normhkva=27.5 wdg=1 conn=wye bus=p12udt1253.3 Kv=7.2 kva=25.0 EmergHKVA=37.5 %r=0.266272 wdg=2 conn=wye bus=p12udt1253lv.1.0 Kv=0.12 kva=25.0 EmergHKVA=37.5 %r=0.532544 wdg=3 conn=wye bus=p12udt1253lv.0.2 Kv=0.12 kva=25.0 EmergHKVA=37.5 %r=0.532544 XHL=2.4 XLT=2.4 XHT=1.6

New Transformer.tr(r:p12udt1254-p12udt1254lv) phases=3 windings=2 %loadloss=1.74408 %Noloadloss=0.6 normhkva=82.5 wdg=1 conn=wye Kv=12.47 kva=75.0 EmergHKVA=112.5 %R=0.87204 bus=p12udt1254 wdg=2 conn=wye Kv=0.48 kva=75.0 EmergHKVA=112.5 %R=0.87204 bus=p12udt1254lv XHL=3.2400000000000007

New Transformer.tr(r:p12udt1266-p12udt1266lv) phases=1 windings=3 %loadloss=0.798816 %Noloadloss=0.472 normhkva=27.5 wdg=1 conn=wye bus=p12udt1266.3 Kv=7.2 kva=25.0 EmergHKVA=37.5 %r=0.266272 wdg=2 conn=wye bus=p12udt1266lv.1.0 Kv=0.12 kva=25.0 EmergHKVA=37.5 %r=0.532544 wdg=3 conn=wye bus=p12udt1266lv.0.2 Kv=0.12 kva=25.0 EmergHKVA=37.5 %r=0.532544 XHL=2.4 XLT=2.4 XHT=1.6

New Transformer.tr(r:p12udt2644-p12udt2644lv) phases=1 windings=3 %loadloss=0.798816 %Noloadloss=0.472 normhkva=27.5 wdg=1 conn=wye bus=p12udt2644.3 Kv=7.2 kva=25.0 EmergHKVA=37.5 %r=0.266272 wdg=2 conn=wye bus=p12udt2644lv.1.0 Kv=0.12 kva=25.0 EmergHKVA=37.5 %r=0.532544 wdg=3 conn=wye bus=p12udt2644lv.0.2 Kv=0.12 kva=25.0 EmergHKVA=37.5 %r=0.532544 XHL=2.4 XLT=2.4 XHT=1.6

New Transformer.tr(r:p12udt2651-p12udt2651lv) phases=1 windings=3 %loadloss=0.798816 %Noloadloss=0.472 normhkva=27.5 wdg=1 conn=wye bus=p12udt2651.1 Kv=7.2 kva=25.0 EmergHKVA=37.5 %r=0.266272 wdg=2 conn=wye bus=p12udt2651lv.1.0 Kv=0.12 kva=25.0 EmergHKVA=37.5 %r=0.532544 wdg=3 conn=wye bus=p12udt2651lv.0.2 Kv=0.12 kva=25.0 EmergHKVA=37.5 %r=0.532544 XHL=2.4 XLT=2.4 XHT=1.6

New Transformer.tr(r:p12udt2654-p12udt2654lv) phases=1 windings=3 %loadloss=0.798816 %Noloadloss=0.472 normhkva=27.5 wdg=1 conn=wye bus=p12udt2654.2 Kv=7.2 kva=25.0 EmergHKVA=37.5 %r=0.266272 wdg=2 conn=wye bus=p12udt2654lv.1.0 Kv=0.12 kva=25.0 EmergHKVA=37.5 %r=0.532544 wdg=3 conn=wye bus=p12udt2654lv.0.2 Kv=0.12 kva=25.0 EmergHKVA=37.5 %r=0.532544 XHL=2.4 XLT=2.4 XHT=1.6

New Transformer.tr(r:p12udt2655-p12udt2655lv) phases=3 windings=2 %loadloss=1.61095 %Noloadloss=0.62 normhkva=110.0 wdg=1 conn=wye Kv=12.47 kva=100.0 EmergHKVA=150.0 %R=0.805475 bus=p12udt2655 wdg=2 conn=wye Kv=0.48 kva=100.0 EmergHKVA=150.0 %R=0.805475 bus=p12udt2655lv XHL=3.29

New Transformer.tr(r:p12udt2658-p12udt2658lv) phases=1 windings=3 %loadloss=0.798816 %Noloadloss=0.472 normhkva=27.5 wdg=1 conn=wye bus=p12udt2658.1 Kv=7.2 kva=25.0 EmergHKVA=37.5 %r=0.266272 wdg=2 conn=wye bus=p12udt2658lv.1.0 Kv=0.12 kva=25.0 EmergHKVA=37.5 %r=0.532544 wdg=3 conn=wye bus=p12udt2658lv.0.2 Kv=0.12 kva=25.0 EmergHKVA=37.5 %r=0.532544 XHL=2.4 XLT=2.4 XHT=1.6

New Transformer.tr(r:p12udt2659-p12udt2659lv) phases=1 windings=3 %loadloss=1.248151 %Noloadloss=0.68 normhkva=11.0 wdg=1 conn=wye bus=p12udt2659.1 Kv=7.2 kva=10.0 EmergHKVA=15.0 %r=0.41605 wdg=2 conn=wye bus=p12udt2659lv.1.0 Kv=0.12 kva=10.0 EmergHKVA=15.0 %r=0.832101 wdg=3 conn=wye bus=p12udt2659lv.0.2 Kv=0.12 kva=10.0 EmergHKVA=15.0 %r=0.832101 XHL=1.08 XLT=1.08 XHT=0.72

New Transformer.tr(r:p12udt2661-p12udt2661lv) phases=1 windings=3 %loadloss=0.798816 %Noloadloss=0.472 normhkva=27.5 wdg=1 conn=wye bus=p12udt2661.3 Kv=7.2 kva=25.0 EmergHKVA=37.5 %r=0.266272 wdg=2 conn=wye bus=p12udt2661lv.1.0 Kv=0.12 kva=25.0 EmergHKVA=37.5 %r=0.532544 wdg=3 conn=wye bus=p12udt2661lv.0.2 Kv=0.12 kva=25.0 EmergHKVA=37.5 %r=0.532544 XHL=2.4 XLT=2.4 XHT=1.6

New Transformer.tr(r:p12udt2670-p12udt2670lv) phases=1 windings=3 %loadloss=0.798816 %Noloadloss=0.472 normhkva=27.5 wdg=1 conn=wye bus=p12udt2670.2 Kv=7.2 kva=25.0 EmergHKVA=37.5 %r=0.266272 wdg=2 conn=wye bus=p12udt2670lv.1.0 Kv=0.12 kva=25.0 EmergHKVA=37.5 %r=0.532544 wdg=3 conn=wye bus=p12udt2670lv.0.2 Kv=0.12 kva=25.0 EmergHKVA=37.5 %r=0.532544 XHL=2.4 XLT=2.4 XHT=1.6

New Transformer.tr(r:p12udt2671-p12udt2671lv) phases=1 windings=3 %loadloss=0.798816 %Noloadloss=0.472 normhkva=27.5 wdg=1 conn=wye bus=p12udt2671.2 Kv=7.2 kva=25.0 EmergHKVA=37.5 %r=0.266272 wdg=2 conn=wye bus=p12udt2671lv.1.0 Kv=0.12 kva=25.0 EmergHKVA=37.5 %r=0.532544 wdg=3 conn=wye bus=p12udt2671lv.0.2 Kv=0.12 kva=25.0 EmergHKVA=37.5 %r=0.532544 XHL=2.4 XLT=2.4 XHT=1.6

New Transformer.tr(r:p12udt2679-p12udt2679lv) phases=1 windings=3 %loadloss=0.798816 %Noloadloss=0.472 normhkva=27.5 wdg=1 conn=wye bus=p12udt2679.2 Kv=7.2 kva=25.0 EmergHKVA=37.5 %r=0.266272 wdg=2 conn=wye bus=p12udt2679lv.1.0 Kv=0.12 kva=25.0 EmergHKVA=37.5 %r=0.532544 wdg=3 conn=wye bus=p12udt2679lv.0.2 Kv=0.12 kva=25.0 EmergHKVA=37.5 %r=0.532544 XHL=2.4 XLT=2.4 XHT=1.6

New Transformer.tr(r:p12udt2683-p12udt2683lv) phases=1 windings=3 %loadloss=0.798816 %Noloadloss=0.472 normhkva=27.5 wdg=1 conn=wye bus=p12udt2683.2 Kv=7.2 kva=25.0 EmergHKVA=37.5 %r=0.266272 wdg=2 conn=wye bus=p12udt2683lv.1.0 Kv=0.12 kva=25.0 EmergHKVA=37.5 %r=0.532544 wdg=3 conn=wye bus=p12udt2683lv.0.2 Kv=0.12 kva=25.0 EmergHKVA=37.5 %r=0.532544 XHL=2.4 XLT=2.4 XHT=1.6

New Transformer.tr(r:p12udt2688-p12udt2688lv) phases=1 windings=3 %loadloss=0.798816 %Noloadloss=0.37 normhkva=55.0 wdg=1 conn=wye bus=p12udt2688.2 Kv=7.2 kva=50.0 EmergHKVA=75.0 %r=0.266272 wdg=2 conn=wye bus=p12udt2688lv.1.0 Kv=0.12 kva=50.0 EmergHKVA=75.0 %r=0.532544 wdg=3 conn=wye bus=p12udt2688lv.0.2 Kv=0.12 kva=50.0 EmergHKVA=75.0 %r=0.532544 XHL=2.4 XLT=2.4 XHT=1.6

New Transformer.tr(r:p12udt2691-p12udt2691lv) phases=1 windings=3 %loadloss=0.798816 %Noloadloss=0.472 normhkva=27.5 wdg=1 conn=wye bus=p12udt2691.2 Kv=7.2 kva=25.0 EmergHKVA=37.5 %r=0.266272 wdg=2 conn=wye bus=p12udt2691lv.1.0 Kv=0.12 kva=25.0 EmergHKVA=37.5 %r=0.532544 wdg=3 conn=wye bus=p12udt2691lv.0.2 Kv=0.12 kva=25.0 EmergHKVA=37.5 %r=0.532544 XHL=2.4 XLT=2.4 XHT=1.6

New Transformer.tr(r:p12udt2715-p12udt2715lv) phases=1 windings=3 %loadloss=0.798816 %Noloadloss=0.472 normhkva=27.5 wdg=1 conn=wye bus=p12udt2715.2 Kv=7.2 kva=25.0 EmergHKVA=37.5 %r=0.266272 wdg=2 conn=wye bus=p12udt2715lv.1.0 Kv=0.12 kva=25.0 EmergHKVA=37.5 %r=0.532544 wdg=3 conn=wye bus=p12udt2715lv.0.2 Kv=0.12 kva=25.0 EmergHKVA=37.5 %r=0.532544 XHL=2.4 XLT=2.4 XHT=1.6

New Transformer.tr(r:p12udt2724-p12udt2724lv) phases=1 windings=3 %loadloss=0.798816 %Noloadloss=0.37 normhkva=55.0 wdg=1 conn=wye bus=p12udt2724.2 Kv=7.2 kva=50.0 EmergHKVA=75.0 %r=0.266272 wdg=2 conn=wye bus=p12udt2724lv.1.0 Kv=0.12 kva=50.0 EmergHKVA=75.0 %r=0.532544 wdg=3 conn=wye bus=p12udt2724lv.0.2 Kv=0.12 kva=50.0 EmergHKVA=75.0 %r=0.532544 XHL=2.4 XLT=2.4 XHT=1.6

New Transformer.tr(r:p12udt2730-p12udt2730lv) phases=1 windings=3 %loadloss=0.798816 %Noloadloss=0.472 normhkva=27.5 wdg=1 conn=wye bus=p12udt2730.2 Kv=7.2 kva=25.0 EmergHKVA=37.5 %r=0.266272 wdg=2 conn=wye bus=p12udt2730lv.1.0 Kv=0.12 kva=25.0 EmergHKVA=37.5 %r=0.532544 wdg=3 conn=wye bus=p12udt2730lv.0.2 Kv=0.12 kva=25.0 EmergHKVA=37.5 %r=0.532544 XHL=2.4 XLT=2.4 XHT=1.6

New Transformer.tr(r:p12udt2950-p12udt2950lv) phases=1 windings=3 %loadloss=0.798816 %Noloadloss=0.472 normhkva=27.5 wdg=1 conn=wye bus=p12udt2950.1 Kv=7.2 kva=25.0 EmergHKVA=37.5 %r=0.266272 wdg=2 conn=wye bus=p12udt2950lv.1.0 Kv=0.12 kva=25.0 EmergHKVA=37.5 %r=0.532544 wdg=3 conn=wye bus=p12udt2950lv.0.2 Kv=0.12 kva=25.0 EmergHKVA=37.5 %r=0.532544 XHL=2.4 XLT=2.4 XHT=1.6

New Transformer.tr(r:p12udt2951-p12udt2951lv) phases=1 windings=3 %loadloss=0.798816 %Noloadloss=0.472 normhkva=27.5 wdg=1 conn=wye bus=p12udt2951.1 Kv=7.2 kva=25.0 EmergHKVA=37.5 %r=0.266272 wdg=2 conn=wye bus=p12udt2951lv.1.0 Kv=0.12 kva=25.0 EmergHKVA=37.5 %r=0.532544 wdg=3 conn=wye bus=p12udt2951lv.0.2 Kv=0.12 kva=25.0 EmergHKVA=37.5 %r=0.532544 XHL=2.4 XLT=2.4 XHT=1.6

New Transformer.tr(r:p12udt2952-p12udt2952lv) phases=1 windings=3 %loadloss=0.798816 %Noloadloss=0.472 normhkva=27.5 wdg=1 conn=wye bus=p12udt2952.3 Kv=7.2 kva=25.0 EmergHKVA=37.5 %r=0.266272 wdg=2 conn=wye bus=p12udt2952lv.1.0 Kv=0.12 kva=25.0 EmergHKVA=37.5 %r=0.532544 wdg=3 conn=wye bus=p12udt2952lv.0.2 Kv=0.12 kva=25.0 EmergHKVA=37.5 %r=0.532544 XHL=2.4 XLT=2.4 XHT=1.6

New Transformer.tr(r:p12udt2953-p12udt2953lv) phases=1 windings=3 %loadloss=1.248151 %Noloadloss=0.68 normhkva=11.0 wdg=1 conn=wye bus=p12udt2953.3 Kv=7.2 kva=10.0 EmergHKVA=15.0 %r=0.41605 wdg=2 conn=wye bus=p12udt2953lv.1.0 Kv=0.12 kva=10.0 EmergHKVA=15.0 %r=0.832101 wdg=3 conn=wye bus=p12udt2953lv.0.2 Kv=0.12 kva=10.0 EmergHKVA=15.0 %r=0.832101 XHL=1.08 XLT=1.08 XHT=0.72

New Transformer.tr(r:p12udt2954-p12udt2954lv) phases=1 windings=3 %loadloss=0.798816 %Noloadloss=0.472 normhkva=27.5 wdg=1 conn=wye bus=p12udt2954.1 Kv=7.2 kva=25.0 EmergHKVA=37.5 %r=0.266272 wdg=2 conn=wye bus=p12udt2954lv.1.0 Kv=0.12 kva=25.0 EmergHKVA=37.5 %r=0.532544 wdg=3 conn=wye bus=p12udt2954lv.0.2 Kv=0.12 kva=25.0 EmergHKVA=37.5 %r=0.532544 XHL=2.4 XLT=2.4 XHT=1.6

New Transformer.tr(r:p12udt2955-p12udt2955lv) phases=1 windings=3 %loadloss=0.599112 %Noloadloss=0.37 normhkva=55.0 wdg=1 conn=wye bus=p12udt2955.1 Kv=7.2 kva=50.0 EmergHKVA=75.0 %r=0.199704 wdg=2 conn=wye bus=p12udt2955lv.1.0 Kv=0.12 kva=50.0 EmergHKVA=75.0 %r=0.399408 wdg=3 conn=wye bus=p12udt2955lv.0.2 Kv=0.12 kva=50.0 EmergHKVA=75.0 %r=0.399408 XHL=2.4 XLT=2.4 XHT=1.6

New Transformer.tr(r:p12udt3325-p12udt3325lv) phases=1 windings=3 %loadloss=0.798816 %Noloadloss=0.472 normhkva=27.5 wdg=1 conn=wye bus=p12udt3325.2 Kv=7.2 kva=25.0 EmergHKVA=37.5 %r=0.266272 wdg=2 conn=wye bus=p12udt3325lv.1.0 Kv=0.12 kva=25.0 EmergHKVA=37.5 %r=0.532544 wdg=3 conn=wye bus=p12udt3325lv.0.2 Kv=0.12 kva=25.0 EmergHKVA=37.5 %r=0.532544 XHL=2.4 XLT=2.4 XHT=1.6

New Transformer.tr(r:p12udt3328-p12udt3328lv) phases=1 windings=3 %loadloss=0.798816 %Noloadloss=0.37 normhkva=55.0 wdg=1 conn=wye bus=p12udt3328.3 Kv=7.2 kva=50.0 EmergHKVA=75.0 %r=0.266272 wdg=2 conn=wye bus=p12udt3328lv.1.0 Kv=0.12 kva=50.0 EmergHKVA=75.0 %r=0.532544 wdg=3 conn=wye bus=p12udt3328lv.0.2 Kv=0.12 kva=50.0 EmergHKVA=75.0 %r=0.532544 XHL=2.4 XLT=2.4 XHT=1.6

New Transformer.tr(r:p12udt3330-p12udt3330lv) phases=3 windings=2 %loadloss=1.74408 %Noloadloss=0.6 normhkva=82.5 wdg=1 conn=wye Kv=12.47 kva=75.0 EmergHKVA=112.5 %R=0.87204 bus=p12udt3330 wdg=2 conn=wye Kv=0.48 kva=75.0 EmergHKVA=112.5 %R=0.87204 bus=p12udt3330lv XHL=3.2400000000000007

New Transformer.tr(r:p12udt3333-p12udt3333lv) phases=1 windings=3 %loadloss=0.798816 %Noloadloss=0.472 normhkva=27.5 wdg=1 conn=wye bus=p12udt3333.1 Kv=7.2 kva=25.0 EmergHKVA=37.5 %r=0.266272 wdg=2 conn=wye bus=p12udt3333lv.1.0 Kv=0.12 kva=25.0 EmergHKVA=37.5 %r=0.532544 wdg=3 conn=wye bus=p12udt3333lv.0.2 Kv=0.12 kva=25.0 EmergHKVA=37.5 %r=0.532544 XHL=2.4 XLT=2.4 XHT=1.6

New Transformer.tr(r:p12udt3387-p12udt3387lv) phases=1 windings=3 %loadloss=0.798816 %Noloadloss=0.472 normhkva=27.5 wdg=1 conn=wye bus=p12udt3387.2 Kv=7.2 kva=25.0 EmergHKVA=37.5 %r=0.266272 wdg=2 conn=wye bus=p12udt3387lv.1.0 Kv=0.12 kva=25.0 EmergHKVA=37.5 %r=0.532544 wdg=3 conn=wye bus=p12udt3387lv.0.2 Kv=0.12 kva=25.0 EmergHKVA=37.5 %r=0.532544 XHL=2.4 XLT=2.4 XHT=1.6

New Transformer.tr(r:p12udt3390-p12udt3390lv) phases=1 windings=3 %loadloss=0.798816 %Noloadloss=0.472 normhkva=27.5 wdg=1 conn=wye bus=p12udt3390.2 Kv=7.2 kva=25.0 EmergHKVA=37.5 %r=0.266272 wdg=2 conn=wye bus=p12udt3390lv.1.0 Kv=0.12 kva=25.0 EmergHKVA=37.5 %r=0.532544 wdg=3 conn=wye bus=p12udt3390lv.0.2 Kv=0.12 kva=25.0 EmergHKVA=37.5 %r=0.532544 XHL=2.4 XLT=2.4 XHT=1.6

New Transformer.tr(r:p12udt3397-p12udt3397lv) phases=3 windings=2 %loadloss=1.74408 %Noloadloss=0.6 normhkva=82.5 wdg=1 conn=wye Kv=12.47 kva=75.0 EmergHKVA=112.5 %R=0.87204 bus=p12udt3397 wdg=2 conn=wye Kv=0.48 kva=75.0 EmergHKVA=112.5 %R=0.87204 bus=p12udt3397lv XHL=3.2400000000000007

New Transformer.tr(r:p12udt3398-p12udt3398lv) phases=1 windings=3 %loadloss=0.798816 %Noloadloss=0.472 normhkva=27.5 wdg=1 conn=wye bus=p12udt3398.1 Kv=7.2 kva=25.0 EmergHKVA=37.5 %r=0.266272 wdg=2 conn=wye bus=p12udt3398lv.1.0 Kv=0.12 kva=25.0 EmergHKVA=37.5 %r=0.532544 wdg=3 conn=wye bus=p12udt3398lv.0.2 Kv=0.12 kva=25.0 EmergHKVA=37.5 %r=0.532544 XHL=2.4 XLT=2.4 XHT=1.6

New Transformer.tr(r:p12udt3411-p12udt3411lv) phases=1 windings=3 %loadloss=0.798816 %Noloadloss=0.472 normhkva=27.5 wdg=1 conn=wye bus=p12udt3411.3 Kv=7.2 kva=25.0 EmergHKVA=37.5 %r=0.266272 wdg=2 conn=wye bus=p12udt3411lv.1.0 Kv=0.12 kva=25.0 EmergHKVA=37.5 %r=0.532544 wdg=3 conn=wye bus=p12udt3411lv.0.2 Kv=0.12 kva=25.0 EmergHKVA=37.5 %r=0.532544 XHL=2.4 XLT=2.4 XHT=1.6

New Transformer.tr(r:p12udt3693-p12udt3693lv) phases=1 windings=3 %loadloss=0.798816 %Noloadloss=0.472 normhkva=27.5 wdg=1 conn=wye bus=p12udt3693.2 Kv=7.2 kva=25.0 EmergHKVA=37.5 %r=0.266272 wdg=2 conn=wye bus=p12udt3693lv.1.0 Kv=0.12 kva=25.0 EmergHKVA=37.5 %r=0.532544 wdg=3 conn=wye bus=p12udt3693lv.0.2 Kv=0.12 kva=25.0 EmergHKVA=37.5 %r=0.532544 XHL=2.4 XLT=2.4 XHT=1.6

New Transformer.tr(r:p12udt3695-p12udt3695lv) phases=1 windings=3 %loadloss=0.798816 %Noloadloss=0.472 normhkva=27.5 wdg=1 conn=wye bus=p12udt3695.2 Kv=7.2 kva=25.0 EmergHKVA=37.5 %r=0.266272 wdg=2 conn=wye bus=p12udt3695lv.1.0 Kv=0.12 kva=25.0 EmergHKVA=37.5 %r=0.532544 wdg=3 conn=wye bus=p12udt3695lv.0.2 Kv=0.12 kva=25.0 EmergHKVA=37.5 %r=0.532544 XHL=2.4 XLT=2.4 XHT=1.6

New Transformer.tr(r:p12udt3701-p12udt3701lv) phases=1 windings=3 %loadloss=0.798816 %Noloadloss=0.472 normhkva=27.5 wdg=1 conn=wye bus=p12udt3701.2 Kv=7.2 kva=25.0 EmergHKVA=37.5 %r=0.266272 wdg=2 conn=wye bus=p12udt3701lv.1.0 Kv=0.12 kva=25.0 EmergHKVA=37.5 %r=0.532544 wdg=3 conn=wye bus=p12udt3701lv.0.2 Kv=0.12 kva=25.0 EmergHKVA=37.5 %r=0.532544 XHL=2.4 XLT=2.4 XHT=1.6

New Transformer.tr(r:p12udt3711-p12udt3711lv) phases=1 windings=3 %loadloss=0.798816 %Noloadloss=0.472 normhkva=27.5 wdg=1 conn=wye bus=p12udt3711.2 Kv=7.2 kva=25.0 EmergHKVA=37.5 %r=0.266272 wdg=2 conn=wye bus=p12udt3711lv.1.0 Kv=0.12 kva=25.0 EmergHKVA=37.5 %r=0.532544 wdg=3 conn=wye bus=p12udt3711lv.0.2 Kv=0.12 kva=25.0 EmergHKVA=37.5 %r=0.532544 XHL=2.4 XLT=2.4 XHT=1.6

New Transformer.tr(r:p12udt3713-p12udt3713lv) phases=1 windings=3 %loadloss=0.798816 %Noloadloss=0.472 normhkva=27.5 wdg=1 conn=wye bus=p12udt3713.1 Kv=7.2 kva=25.0 EmergHKVA=37.5 %r=0.266272 wdg=2 conn=wye bus=p12udt3713lv.1.0 Kv=0.12 kva=25.0 EmergHKVA=37.5 %r=0.532544 wdg=3 conn=wye bus=p12udt3713lv.0.2 Kv=0.12 kva=25.0 EmergHKVA=37.5 %r=0.532544 XHL=2.4 XLT=2.4 XHT=1.6

New Transformer.tr(r:p12udt4002-p12udt4002lv) phases=1 windings=3 %loadloss=0.798816 %Noloadloss=0.472 normhkva=27.5 wdg=1 conn=wye bus=p12udt4002.3 Kv=7.2 kva=25.0 EmergHKVA=37.5 %r=0.266272 wdg=2 conn=wye bus=p12udt4002lv.1.0 Kv=0.12 kva=25.0 EmergHKVA=37.5 %r=0.532544 wdg=3 conn=wye bus=p12udt4002lv.0.2 Kv=0.12 kva=25.0 EmergHKVA=37.5 %r=0.532544 XHL=2.4 XLT=2.4 XHT=1.6

New Transformer.tr(r:p12udt4003-p12udt4003lv) phases=1 windings=3 %loadloss=0.798816 %Noloadloss=0.472 normhkva=27.5 wdg=1 conn=wye bus=p12udt4003.3 Kv=7.2 kva=25.0 EmergHKVA=37.5 %r=0.266272 wdg=2 conn=wye bus=p12udt4003lv.1.0 Kv=0.12 kva=25.0 EmergHKVA=37.5 %r=0.532544 wdg=3 conn=wye bus=p12udt4003lv.0.2 Kv=0.12 kva=25.0 EmergHKVA=37.5 %r=0.532544 XHL=2.4 XLT=2.4 XHT=1.6

New Transformer.tr(r:p12udt4004-p12udt4004lv) phases=1 windings=3 %loadloss=0.798816 %Noloadloss=0.472 normhkva=27.5 wdg=1 conn=wye bus=p12udt4004.1 Kv=7.2 kva=25.0 EmergHKVA=37.5 %r=0.266272 wdg=2 conn=wye bus=p12udt4004lv.1.0 Kv=0.12 kva=25.0 EmergHKVA=37.5 %r=0.532544 wdg=3 conn=wye bus=p12udt4004lv.0.2 Kv=0.12 kva=25.0 EmergHKVA=37.5 %r=0.532544 XHL=2.4 XLT=2.4 XHT=1.6

...