tests/data/smartds/Loads.dss
New Load.load_p12ulv165_1 conn=wye bus1=p12ulv165.1 kV=0.12 Vminpu=0.8 Vmaxpu=1.2 model=1 kW=2.9076987689555547 kvar=0.4990087025098919 Phases=1 !yearly=res_kw_6859_pu

New Load.load_p12ulv165_2 conn=wye bus1=p12ulv165.2 kV=0.12 Vminpu=0.8 Vmaxpu=1.2 model=1 kW=2.9076987689555547 kvar=0.4990087025098919 Phases=1 !yearly=res_kw_6859_pu

New Load.load_p12ulv176_1 conn=wye bus1=p12ulv176.1 kV=0.12 Vminpu=0.8 Vmaxpu=1.2 model=1 kW=2.4473849682194437 kvar=0.3216194123870954 Phases=1 !yearly=com_kw_32123_pu

New Load.load_p12ulv176_2 conn=wye bus1=p12ulv176.2 kV=0.12 Vminpu=0.8 Vmaxpu=1.2 model=1 kW=2.4473849682194437 kvar=0.3216194123870954 Phases=1 !yearly=com_kw_32123_pu

New Load.load_p12ulv197_1 conn=wye bus1=p12ulv197.1 kV=0.12 Vminpu=0.8 Vmaxpu=1.2 model=1 kW=6.1140699739098325 kvar=0.0691290550182753 Phases=1 !yearly=com_kw_33846_pu

New Load.load_p12ulv197_2 conn=wye bus1=p12ulv197.2 kV=0.12 Vminpu=0.8 Vmaxpu=1.2 model=1 kW=6.1140699739098325 kvar=0.0691290550182753 Phases=1 !yearly=com_kw_33846_pu

New Load.load_p12ulv200_1 conn=wye bus1=p12ulv200.1 kV=0.12 Vminpu=0.8 Vmaxpu=1.2 model=1 kW=2.7935386970404408 kvar=0.018922139033990728 Phases=1 !yearly=com_kw_16677_pu

New Load.load_p12ulv200_2 conn=wye bus1=p12ulv200.2 kV=0.12 Vminpu=0.8 Vmaxpu=1.2 model=1 kW=2.7935386970404408 kvar=0.018922139033990728 Phases=1 !yearly=com_kw_16677_pu

New Load.load_p12ulv206_1 conn=wye bus1=p12ulv206.1 kV=0.12 Vminpu=0.8 Vmaxpu=1.2 model=1 kW=0.4201586663199254 kvar=0.14715274062115527 Phases=1 !yearly=res_kw_5106_pu

New Load.load_p12ulv206_2 conn=wye bus1=p12ulv206.2 kV=0.12 Vminpu=0.8 Vmaxpu=1.2 model=1 kW=0.4201586663199254 kvar=0.14715274062115527 Phases=1 !yearly=res_kw_5106_pu

New Load.load_p12ulv210_1 conn=wye bus1=p12ulv210.1 kV=0.12 Vminpu=0.8 Vmaxpu=1.2 model=1 kW=0.895854429151281 kvar=0.6750370195342454 Phases=1 !yearly=res_kw_7590_pu

New Load.load_p12ulv210_2 conn=wye bus1=p12ulv210.2 kV=0.12 Vminpu=0.8 Vmaxpu=1.2 model=1 kW=0.895854429151281 kvar=0.6750370195342454 Phases=1 !yearly=res_kw_7590_pu

New Load.load_p12ulv214_1 conn=wye bus1=p12ulv214.1 kV=0.12 Vminpu=0.8 Vmaxpu=1.2 model=1 kW=2.725954562298933 kvar=0.5866148963219024 Phases=1 !yearly=com_kw_29469_pu

New Load.load_p12ulv214_2 conn=wye bus1=p12ulv214.2 kV=0.12 Vminpu=0.8 Vmaxpu=1.2 model=1 kW=2.725954562298933 kvar=0.5866148963219024 Phases=1 !yearly=com_kw_29469_pu

New Load.load_p12ulv261_1 conn=wye bus1=p12ulv261.1 kV=0.12 Vminpu=0.8 Vmaxpu=1.2 model=1 kW=5.611133182200907 kvar=0.07668264048246332 Phases=1 !yearly=com_kw_1743_pu

New Load.load_p12ulv261_2 conn=wye bus1=p12ulv261.2 kV=0.12 Vminpu=0.8 Vmaxpu=1.2 model=1 kW=5.611133182200907 kvar=0.07668264048246332 Phases=1 !yearly=com_kw_1743_pu

New Load.load_p12ulv265_1 conn=wye bus1=p12ulv265.1 kV=0.12 Vminpu=0.8 Vmaxpu=1.2 model=1 kW=2.445994317964332 kvar=0.8597073331859654 Phases=1 !yearly=res_kw_13148_pu

New Load.load_p12ulv265_2 conn=wye bus1=p12ulv265.2 kV=0.12 Vminpu=0.8 Vmaxpu=1.2 model=1 kW=2.445994317964332 kvar=0.8597073331859654 Phases=1 !yearly=res_kw_13148_pu

New Load.load_p12ulv268_1 conn=wye bus1=p12ulv268.1 kV=0.12 Vminpu=0.8 Vmaxpu=1.2 model=1 kW=0.7073298240395912 kvar=0.27247283022117846 Phases=1 !yearly=res_kw_4808_pu

New Load.load_p12ulv268_2 conn=wye bus1=p12ulv268.2 kV=0.12 Vminpu=0.8 Vmaxpu=1.2 model=1 kW=0.7073298240395912 kvar=0.27247283022117846 Phases=1 !yearly=res_kw_4808_pu

New Load.load_p12ulv288_1 conn=wye bus1=p12ulv288.1 kV=0.12 Vminpu=0.8 Vmaxpu=1.2 model=1 kW=1.554325896527151 kvar=0.5828877012431191 Phases=1 !yearly=res_kw_11147_pu

New Load.load_p12ulv288_2 conn=wye bus1=p12ulv288.2 kV=0.12 Vminpu=0.8 Vmaxpu=1.2 model=1 kW=1.554325896527151 kvar=0.5828877012431191 Phases=1 !yearly=res_kw_11147_pu

New Load.load_p12ulv293_1 conn=wye bus1=p12ulv293.1 kV=0.12 Vminpu=0.8 Vmaxpu=1.2 model=1 kW=1.1522187211102024 kvar=0.1254646123654986 Phases=1 !yearly=com_kw_33747_pu

New Load.load_p12ulv293_2 conn=wye bus1=p12ulv293.2 kV=0.12 Vminpu=0.8 Vmaxpu=1.2 model=1 kW=1.1522187211102024 kvar=0.1254646123654986 Phases=1 !yearly=com_kw_33747_pu

New Load.load_p12ulv295_1 conn=wye bus1=p12ulv295.1 kV=0.12 Vminpu=0.8 Vmaxpu=1.2 model=1 kW=6.1140699739098325 kvar=0.0691290550182753 Phases=1 !yearly=com_kw_33846_pu

New Load.load_p12ulv295_2 conn=wye bus1=p12ulv295.2 kV=0.12 Vminpu=0.8 Vmaxpu=1.2 model=1 kW=6.1140699739098325 kvar=0.0691290550182753 Phases=1 !yearly=com_kw_33846_pu

New Load.load_p12ulv297_1 conn=wye bus1=p12ulv297.1 kV=0.12 Vminpu=0.8 Vmaxpu=1.2 model=1 kW=3.163532585010919 kvar=0.2110868081047307 Phases=1 !yearly=res_kw_13175_pu

New Load.load_p12ulv297_2 conn=wye bus1=p12ulv297.2 kV=0.12 Vminpu=0.8 Vmaxpu=1.2 model=1 kW=3.163532585010919 kvar=0.2110868081047307 Phases=1 !yearly=res_kw_13175_pu

New Load.load_p12ulv303_1 conn=wye bus1=p12ulv303.1 kV=0.12 Vminpu=0.8 Vmaxpu=1.2 model=1 kW=2.515651838005084 kvar=0.502504824260357 Phases=1 !yearly=res_kw_9032_pu

...